Version 4
SHEET 1 1612 1764
WIRE -176 96 -272 96
WIRE 32 96 -112 96
WIRE -432 240 -496 240
WIRE -272 240 -272 96
WIRE -272 240 -352 240
WIRE -176 240 -272 240
WIRE 16 240 -96 240
WIRE 32 240 32 96
WIRE 32 240 16 240
WIRE -80 352 -128 352
WIRE -128 384 -128 352
WIRE -80 384 -80 352
WIRE -272 432 -272 240
WIRE -192 432 -272 432
WIRE -32 464 -48 464
WIRE 16 464 16 240
WIRE 16 464 -32 464
WIRE 64 464 16 464
WIRE 144 464 64 464
WIRE 256 464 224 464
WIRE 288 464 256 464
WIRE 400 464 368 464
WIRE 416 464 400 464
WIRE 544 464 496 464
WIRE 544 480 544 464
WIRE -720 496 -752 496
WIRE -576 496 -640 496
WIRE -416 496 -496 496
WIRE -192 496 -416 496
WIRE 256 496 256 464
WIRE 400 496 400 464
WIRE -416 528 -416 496
WIRE -1280 560 -1360 560
WIRE -1232 560 -1280 560
WIRE -912 560 -1232 560
WIRE -800 560 -912 560
WIRE -1360 576 -1360 560
WIRE -1232 576 -1232 560
WIRE -912 576 -912 560
WIRE -752 576 -752 496
WIRE -1408 592 -1536 592
WIRE -800 592 -800 560
WIRE 256 592 256 560
WIRE 400 592 400 560
WIRE 400 592 256 592
WIRE 544 592 544 544
WIRE 544 592 400 592
WIRE 576 592 544 592
WIRE -2112 608 -2160 608
WIRE -2160 624 -2160 608
WIRE 576 624 576 592
WIRE -2112 640 -2112 608
WIRE -1472 672 -1536 672
WIRE -1408 672 -1408 640
WIRE -1408 672 -1472 672
WIRE -1360 672 -1360 656
WIRE -1360 672 -1408 672
WIRE -1232 672 -1232 656
WIRE -1232 672 -1360 672
WIRE -912 672 -912 656
WIRE -912 672 -1232 672
WIRE -800 672 -800 640
WIRE -800 672 -912 672
WIRE -2800 752 -3104 752
WIRE -2784 752 -2800 752
WIRE -2624 752 -2784 752
WIRE -2496 752 -2544 752
WIRE -2384 752 -2496 752
WIRE -2208 752 -2384 752
WIRE -3632 768 -3712 768
WIRE -3584 768 -3632 768
WIRE -3264 768 -3584 768
WIRE -3152 768 -3264 768
WIRE -2112 768 -2112 720
WIRE -2080 768 -2112 768
WIRE -1776 768 -2000 768
WIRE -800 768 -928 768
WIRE -3712 784 -3712 768
WIRE -3584 784 -3584 768
WIRE -3264 784 -3264 768
WIRE -3104 784 -3104 752
WIRE -2784 784 -2784 752
WIRE -2496 784 -2496 752
WIRE -928 784 -928 768
WIRE -752 784 -752 656
WIRE -3760 800 -3888 800
WIRE -3152 800 -3152 768
WIRE -1312 800 -1360 800
WIRE -1136 800 -1248 800
WIRE -800 800 -800 768
WIRE -2784 864 -2784 848
WIRE -2496 864 -2496 848
WIRE -3824 880 -3888 880
WIRE -3760 880 -3760 848
WIRE -3760 880 -3824 880
WIRE -3712 880 -3712 864
WIRE -3712 880 -3760 880
WIRE -3584 880 -3584 864
WIRE -3584 880 -3712 880
WIRE -3264 880 -3264 864
WIRE -3264 880 -3584 880
WIRE -3152 880 -3152 848
WIRE -3152 880 -3264 880
WIRE -2112 880 -2112 768
WIRE -2080 880 -2112 880
WIRE -1984 880 -2016 880
WIRE -928 896 -928 864
WIRE -800 896 -800 848
WIRE -800 896 -928 896
WIRE -1360 928 -1360 800
WIRE -1136 928 -1136 800
WIRE -1136 928 -1280 928
WIRE -3104 1024 -3104 864
WIRE -3152 1040 -3264 1040
WIRE -2064 1040 -2064 1024
WIRE -2112 1056 -2112 880
WIRE -2096 1056 -2112 1056
WIRE -1312 1056 -1376 1056
WIRE -752 1056 -752 864
WIRE -1984 1072 -1984 880
WIRE -1984 1072 -2032 1072
WIRE -1936 1072 -1984 1072
WIRE -1776 1072 -1776 768
WIRE -1776 1072 -1856 1072
WIRE -1728 1072 -1776 1072
WIRE -1568 1072 -1728 1072
WIRE -1520 1072 -1568 1072
WIRE -1360 1072 -1360 928
WIRE -1360 1072 -1440 1072
WIRE -3312 1088 -3440 1088
WIRE -2208 1088 -2208 752
WIRE -2096 1088 -2208 1088
WIRE -1360 1088 -1360 1072
WIRE -1312 1088 -1360 1088
WIRE -3440 1104 -3440 1088
WIRE -3264 1104 -3264 1040
WIRE -1136 1104 -1136 928
WIRE -1136 1104 -1184 1104
WIRE -1104 1104 -1136 1104
WIRE -3312 1120 -3312 1088
WIRE -2064 1120 -2064 1104
WIRE -1728 1120 -1728 1072
WIRE -816 1120 -880 1120
WIRE -752 1120 -752 1056
WIRE -752 1120 -816 1120
WIRE -672 1120 -752 1120
WIRE -1104 1136 -1120 1136
WIRE -880 1152 -880 1120
WIRE -880 1152 -976 1152
WIRE -816 1152 -816 1120
WIRE -3104 1184 -3104 1104
WIRE -3440 1216 -3440 1184
WIRE -3312 1216 -3312 1168
WIRE -3312 1216 -3440 1216
WIRE -1376 1216 -1376 1056
WIRE -1120 1232 -1120 1136
WIRE -816 1232 -816 1216
WIRE -816 1232 -1120 1232
WIRE -752 1232 -816 1232
WIRE -672 1232 -672 1120
FLAG -3440 1216 0
FLAG -3264 1184 0
FLAG -3152 1088 0
FLAG -3104 1264 0
FLAG -2784 864 0
FLAG -2496 864 0
FLAG -2064 1120 0
FLAG -1728 1184 0
FLAG -2064 1024 VCC
FLAG -2160 624 0
FLAG -2304 640 0
FLAG -2432 640 0
FLAG -2432 560 VEE
FLAG -2304 560 VCC
FLAG -928 896 0
FLAG -1472 672 0
FLAG -1280 560 noise1
FLAG -976 1088 VCC
FLAG -976 1120 VEE
FLAG -416 592 0
FLAG -1184 1072 VEE
FLAG -1184 1040 VCC
FLAG -1376 1216 0
FLAG -1568 1072 in1
FLAG -416 496 buffin
FLAG -2800 752 ref
FLAG -2384 752 ref2
FLAG -3824 880 0
FLAG -3632 768 noise0
FLAG -1136 1104 nref
FLAG -752 1056 nrb
FLAG -560 144 0
FLAG -688 144 0
FLAG -688 64 VEE2
FLAG -560 64 VCC2
FLAG -160 384 VCC2
FLAG -160 544 VEE2
FLAG -496 240 0
FLAG 576 624 0
FLAG 544 464 VO
FLAG 64 464 out
SYMBOL res -3456 1088 R0
SYMATTR InstName R9
SYMATTR Value 60.342
SYMBOL e -3264 1088 R0
SYMATTR InstName E2
SYMATTR Value 80
SYMBOL e -3104 1008 R0
WINDOW 3 12 108 Left 2
SYMATTR Value Laplace = wc5*wc5/(wc5*wc5+2*s*wc5+s*s)
SYMATTR InstName E3
SYMBOL voltage -3104 1168 R0
WINDOW 0 -32 56 VBottom 2
WINDOW 3 32 56 VTop 2
WINDOW 123 60 56 VTop 2
WINDOW 39 0 0 Left 0
SYMATTR InstName Vi
SYMATTR Value 5
SYMATTR Value2 AC 1
SYMBOL res -2528 736 R90
WINDOW 0 0 56 VBottom 2
WINDOW 3 32 56 VTop 2
SYMATTR InstName R10
SYMATTR Value 1.5k
SYMBOL cap -2800 784 R0
SYMATTR InstName C12
SYMATTR Value 10µ
SYMBOL cap -2512 784 R0
SYMATTR InstName C13
SYMATTR Value 20µ
SYMBOL res -1840 1056 R90
WINDOW 0 0 56 VBottom 2
WINDOW 3 32 56 VTop 2
SYMATTR InstName R11
SYMATTR Value 49.9
SYMBOL cap -2016 864 R90
WINDOW 0 0 32 VBottom 2
WINDOW 3 32 32 VTop 2
SYMATTR InstName C14
SYMATTR Value 4.7µ
SYMBOL res -1984 752 R90
WINDOW 0 0 56 VBottom 2
WINDOW 3 32 56 VTop 2
SYMATTR InstName R12
SYMATTR Value 2.5k
SYMBOL cap -1744 1120 R0
SYMATTR InstName C15
SYMATTR Value 4.7µ
SYMBOL res -2128 624 R0
SYMATTR InstName R13
SYMATTR Value 1.25k
SYMBOL voltage -2432 544 R0
WINDOW 123 0 0 Left 0
WINDOW 39 0 0 Left 0
SYMATTR InstName V4
SYMATTR Value -18
SYMBOL voltage -2304 544 R0
WINDOW 123 0 0 Left 0
WINDOW 39 0 0 Left 0
SYMATTR InstName V5
SYMATTR Value 18
SYMBOL res -944 768 R0
SYMATTR InstName R1
SYMATTR Value 60.342
SYMBOL e -752 768 R0
SYMATTR InstName E1
SYMATTR Value 6.8
SYMBOL g -1360 560 R0
SYMATTR InstName G1
SYMATTR Value 11
SYMBOL res -1552 576 R0
SYMATTR InstName R2
SYMATTR Value 60.342
SYMBOL bi -1232 576 R0
WINDOW 3 41 63 Left 2
WINDOW 123 43 34 Left 2
SYMATTR Value I=V(noise1)
SYMATTR Value2 Laplace=sqrt(s/2/pi)
SYMATTR InstName B1
SYMBOL e -752 560 R0
SYMATTR InstName E4
SYMATTR Value {sqrt(0.1)}
SYMBOL res -928 560 R0
SYMATTR InstName R3
SYMATTR Value 1t
SYMBOL res -480 480 R90
WINDOW 0 0 56 VBottom 2
WINDOW 3 32 56 VTop 2
SYMATTR InstName R4
SYMATTR Value 750
SYMBOL cap -432 528 R0
SYMATTR InstName C1
SYMATTR Value 470p
SYMBOL res -1424 1056 R90
WINDOW 0 0 56 VBottom 2
WINDOW 3 32 56 VTop 2
SYMATTR InstName R5
SYMATTR Value 5K
SYMBOL res -1264 912 R90
WINDOW 0 0 56 VBottom 2
WINDOW 3 32 56 VTop 2
SYMATTR InstName R6
SYMATTR Value 5K
SYMBOL cap -1248 784 R90
WINDOW 0 0 32 VBottom 2
WINDOW 3 32 32 VTop 2
SYMATTR InstName C2
SYMATTR Value 4.7µ
SYMBOL res -656 1216 R90
WINDOW 0 0 56 VBottom 2
WINDOW 3 32 56 VTop 2
SYMATTR InstName R7
SYMATTR Value 22
SYMBOL cap -832 1152 R0
SYMATTR InstName C3
SYMATTR Value 100p
SYMBOL res -624 480 R90
WINDOW 0 0 56 VBottom 2
WINDOW 3 32 56 VTop 2
SYMATTR InstName R8
SYMATTR Value 2500 Noiseless
SYMBOL AutoGenerated\\OPAx828 -1040 1120 R0
SYMATTR InstName U3
SYMBOL g -3712 768 R0
SYMATTR InstName G2
SYMATTR Value 340
SYMBOL res -3904 784 R0
SYMATTR InstName R14
SYMATTR Value 60.342
SYMBOL bi -3584 784 R0
WINDOW 3 41 63 Left 2
WINDOW 123 43 34 Left 2
SYMATTR Value I=V(noise0)
SYMATTR Value2 Laplace=sqrt(s/2/pi)
SYMATTR InstName B2
SYMBOL e -3104 768 R0
SYMATTR InstName E5
SYMATTR Value {sqrt(0.1)}
SYMBOL res -3280 768 R0
SYMATTR InstName R15
SYMATTR Value 1t
SYMBOL OpAmps\\LT1007 -2064 1008 R0
SYMATTR InstName U1
SYMBOL AutoGenerated\\OPAx828 -1248 1072 R0
SYMATTR InstName U2
SYMBOL OpAmps\\LTC6090 -128 464 R0
SYMATTR InstName U4
SYMBOL voltage -688 48 R0
WINDOW 123 0 0 Left 0
WINDOW 39 0 0 Left 0
SYMATTR InstName V1
SYMATTR Value -32
SYMBOL voltage -560 48 R0
WINDOW 123 0 0 Left 0
WINDOW 39 0 0 Left 0
SYMATTR InstName V2
SYMATTR Value 32
SYMBOL res -80 224 R90
WINDOW 0 0 56 VBottom 2
WINDOW 3 32 56 VTop 2
SYMATTR InstName R16
SYMATTR Value 5k
SYMBOL res -336 224 R90
WINDOW 0 0 56 VBottom 2
WINDOW 3 32 56 VTop 2
SYMATTR InstName R17
SYMATTR Value 5k
SYMBOL cap -112 80 R90
WINDOW 0 0 32 VBottom 2
WINDOW 3 32 32 VTop 2
SYMATTR InstName C4
SYMATTR Value 68p
SYMBOL res 384 448 R90
WINDOW 0 0 56 VBottom 2
WINDOW 3 32 56 VTop 2
SYMATTR InstName R18
SYMATTR Value 1k
SYMBOL cap 384 496 R0
SYMATTR InstName C5
SYMATTR Value 6.8n
SYMBOL res 512 448 R90
WINDOW 0 0 56 VBottom 2
WINDOW 3 32 56 VTop 2
SYMATTR InstName R19
SYMATTR Value 10000
SYMBOL cap 528 480 R0
SYMATTR InstName C6
SYMATTR Value 1n
SYMBOL cap 240 496 R0
SYMATTR InstName C7
SYMATTR Value 15n
SYMBOL res 240 448 R90
WINDOW 0 0 56 VBottom 2
WINDOW 3 32 56 VTop 2
SYMATTR InstName R20
SYMATTR Value 500
TEXT -2656 1288 Left 2 !.noise V(VO) Vi dec 100 .01 10Meg
TEXT -3008 1064 Left 2 !.param wc5=2*pi*6k
TEXT -3008 1032 Left 2 !.param wc25=2*pi*300K
TEXT -2656 1248 Left 2 ;LTC6655 noise model
TEXT -1304 472 Left 2 ;DAC11001A noise model
